3fi3_ligand
  PyMOL2.5          3D                             0

 38 42  0  0  0  0  0  0  0  0999 V2000
    3.1164   37.6866   17.4323 C   0  0  0  0  0  0  0  0  0  0  0  0
    1.2542   36.1425   11.2038 C   0  0  0  0  0  0  0  0  0  0  0  0
    1.8118   39.3875   14.2394 C   0  0  0  0  0  0  0  0  0  0  0  0
   15.7272   39.1659    6.5350 C   0  0  0  0  0  0  0  0  0  0  0  0
   14.6410   39.3119    7.4483 C   0  0  0  0  0  0  0  0  0  0  0  0
    9.5911   31.5896   13.2985 C   0  0  0  0  0  0  0  0  0  0  0  0
   16.5992   38.0600    6.5890 C   0  0  0  0  0  0  0  0  0  0  0  0
    8.3788   32.0153   13.9531 C   0  0  0  0  0  0  0  0  0  0  0  0
   10.1155   32.3285   12.2065 C   0  0  0  0  0  0  0  0  0  0  0  0
   14.4487   38.3400    8.4368 C   0  0  0  0  0  0  0  0  0  0  0  0
   13.6504   34.8017   11.1453 C   0  0  0  0  0  0  0  0  0  0  0  0
   12.4286   34.3011   11.4479 C   0  0  0  0  0  0  0  0  0  0  0  0
   10.2481   35.4250    8.8391 C   0  0  0  0  0  0  0  0  0  0  0  0
    4.6837   36.0130   14.8678 C   0  0  0  0  0  0  0  0  0  0  0  0
    3.3017   35.3343   12.9306 C   0  0  0  0  0  0  0  0  0  0  0  0
    8.2273   33.9001   12.4497 C   0  0  0  0  0  0  0  0  0  0  0  0
   12.7157   35.8408    9.1187 C   0  0  0  0  0  0  0  0  0  0  0  0
    6.4851   33.7286   14.1523 C   0  0  0  0  0  0  0  0  0  0  0  0
    9.3487   34.7252    9.5939 N   0  0  0  0  0  0  0  0  0  0  0  0
    5.4835   33.8884   13.2595 N   0  0  0  0  0  0  0  0  0  0  0  0
   14.9682   36.2376    9.4355 N   0  0  0  0  0  0  0  0  0  0  0  0
    6.4098   33.8306   15.3237 O   0  0  0  0  0  0  0  0  0  0  0  0
    4.0044   37.7573   16.3566 O   0  0  0  0  0  0  0  0  0  0  0  0
    1.1988   36.4936   12.5566 O   0  0  0  0  0  0  0  0  0  0  0  0
    1.6844   38.1288   14.8347 O   0  0  0  0  0  0  0  0  0  0  0  0
   13.7790   35.5922    9.9220 C   0  0  0  0  0  0  0  0  0  0  0  0
    4.4252   35.1491   13.6855 C   0  0  0  0  0  0  0  0  0  0  0  0
   16.4139   37.1099    7.5373 C   0  0  0  0  0  0  0  0  0  0  0  0
    7.7269   33.1707   13.4916 C   0  0  0  0  0  0  0  0  0  0  0  0
    9.4665   33.4360   11.7624 C   0  0  0  0  0  0  0  0  0  0  0  0
   15.3178   37.2743    8.5025 C   0  0  0  0  0  0  0  0  0  0  0  0
    3.7712   36.9677   15.2318 C   0  0  0  0  0  0  0  0  0  0  0  0
    2.3534   36.3134   13.3195 C   0  0  0  0  0  0  0  0  0  0  0  0
    2.5947   37.1391   14.4780 C   0  0  0  0  0  0  0  0  0  0  0  0
   11.4489   35.3286    9.4494 C   0  0  0  0  0  0  0  0  0  0  0  0
   11.3113   34.5656   10.5995 C   0  0  0  0  0  0  0  0  0  0  0  0
   10.0270   34.2078   10.6762 N   0  0  0  0  0  0  0  0  0  0  0  0
   17.2450   36.0303    7.6092 F   0  0  0  0  0  0  0  0  0  0  0  0
  4  5  4  0  0  0  0
  6  8  4  0  0  0  0
  4  7  4  0  0  0  0
  6  9  4  0  0  0  0
  5 10  4  0  0  0  0
 11 12  4  0  0  0  0
 12 36  4  0  0  0  0
 13 19  4  0  0  0  0
 13 35  4  0  0  0  0
 14 27  4  0  0  0  0
 14 32  4  0  0  0  0
 15 33  4  0  0  0  0
 16 29  4  0  0  0  0
 16 30  4  0  0  0  0
 18 20  1  0  0  0  0
 18 22  2  0  0  0  0
 18 29  1  0  0  0  0
  1 23  1  0  0  0  0
  2 24  1  0  0  0  0
  3 25  1  0  0  0  0
 11 26  4  0  0  0  0
 17 26  4  0  0  0  0
 21 26  1  0  0  0  0
 15 27  4  0  0  0  0
 20 27  1  0  0  0  0
  7 28  4  0  0  0  0
  8 29  4  0  0  0  0
  9 30  4  0  0  0  0
 10 31  4  0  0  0  0
 21 31  1  0  0  0  0
 28 31  4  0  0  0  0
 23 32  1  0  0  0  0
 24 33  1  0  0  0  0
 33 34  4  0  0  0  0
 25 34  1  0  0  0  0
 32 34  4  0  0  0  0
 17 35  4  0  0  0  0
 35 36  4  0  0  0  0
 36 37  4  0  0  0  0
 19 37  4  0  0  0  0
 30 37  1  0  0  0  0
 28 38  1  0  0  0  0
M  END
$$$$
